/*--------------------------------*- C++ -*----------------------------------*\
| =========                 |                                                 |
| \\      /  F ield         | OpenFOAM: The Open Source CFD Toolbox           |
|  \\    /   O peration     | Version:  2406                                  |
|   \\  /    A nd           | Website:  www.openfoam.com                      |
|    \\/     M anipulation  |                                                 |
\*---------------------------------------------------------------------------*/
FoamFile
{
    version     2.0;
    format      binary;
    arch        "LSB;label=32;scalar=64";
    class       polyBoundaryMesh;
    location    "constant/polyMesh";
    object      boundary;
}
// * * * * * * * * * * * * * * * * * * * * * * * * * * * * * * * * * * * * * //

6
(
    top
    {
        type            patch;
        nFaces          3600;
        startFace       316800;
    }
    bottom
    {
        type            wall;
        inGroups        1(wall);
        nFaces          3600;
        startFace       320400;
    }
    right
    {
        type            wall;
        inGroups        1(wall);
        nFaces          1800;
        startFace       324000;
    }
    left
    {
        type            wall;
        inGroups        1(wall);
        nFaces          1800;
        startFace       325800;
    }
    front
    {
        type            wall;
        inGroups        1(wall);
        nFaces          1800;
        startFace       327600;
    }
    back
    {
        type            wall;
        inGroups        1(wall);
        nFaces          1800;
        startFace       329400;
    }
)

// ************************************************************************* //
