/*--------------------------------*- C++ -*----------------------------------*\
| =========                 |                                                 |
| \\      /  F ield         | OpenFOAM: The Open Source CFD Toolbox           |
|  \\    /   O peration     | Version:  v2006                                 |
|   \\  /    A nd           | Website:  www.openfoam.com                      |
|    \\/     M anipulation  |                                                 |
\*---------------------------------------------------------------------------*/
FoamFile
{
    version     2.0;
    format      ascii;
    class       dictionary;
    object      blockMeshDict;
}
// * * * * * * * * * * * * * * * * * * * * * * * * * * * * * * * * * * * * * //

scale   0.001;

vertices
(
    (0 0 0) // 0
    (6 0 0) // 1
    (6 3 0) // 2
    (0 3 0) // 3

    (0 0 6) // 4
    (6 0 6) // 5
    (6 3 6) // 6
    (0 3 6) // 7
);

blocks
(
    hex (0 1 2 3 4 5 6 7) (60 30 60) simpleGrading (1 1 1)
);

edges
(
);

boundary
(
    top
    {
        type patch;
        faces
        (
            (3 7 6 2)
        );
    }

    bottom
    {
        type wall;
        faces
        (
            (1 5 4 0)
        );
    }

    right
    {
        type wall;
        faces
        (
            (2 6 5 1)
        );
    }

    left
    {
        type wall;
        faces
        (
            (0 4 7 3)
        );
    }

    front
    {
        type wall;
        faces
        (
            (4 5 6 7)
        );
    }

    back
    {
        type wall;
        faces
        (
            (0 3 2 1)
        );
    }
);

// ************************************************************************* //
